 Case_ID  IEC  AeroDyn15  AeroDyn15  AeroDyn15  AeroDyn15  AeroDyn15  AeroDyn15  AeroDyn15  AeroDyn15  AeroDyn15  AeroDyn15  AeroDyn15  AeroDyn15  AeroDyn15  AeroDyn15  ElastoDyn  ElastoDyn  ElastoDyn  ElastoDyn  ElastoDyn  ElastoDyn  ElastoDyn  ElastoDyn      ElastoDyn      ElastoDyn  ElastoDyn  ElastoDyn  ElastoDyn  ElastoDyn     Fst       Fst    Fst                            InflowWind                         InflowWind  ServoDyn  ServoDyn  ServoDyn 
          DLC  AFAeroMod    AIDrag    HubLoss    IndToler   MaxIter    SkewMod     TIDrag     TanInd    TipLoss    TwrAero   TwrPotent  TwrShadow   UseBlCm    WakeMod    BlPitch1   BlPitch2   BlPitch3   DrTrDOF    EdgeDOF    FlapDOF1   FlapDOF2    GenDOF        RotSpeed       TwFADOF1   TwFADOF2   TwSSDOF1   TwSSDOF2    YawDOF   OutFileFmt   TMax  TStart                           Filename                           WindType    PCMode   VSContrl   YCMode  
    0     1.1      2         True       True      1e-05       5000        1         True       True       True      False        0        False       True        1         0.0        0.0        0.0       False       True       True       True       True    7.473303702014907    False      False      False      False       True        2       630.0   30.0    RotorSE_FAST_BAR_005a_turb_U8.374815_Seed310414237.0.bts      3          5         5         5     
    1     1.1      2         True       True      1e-05       5000        1         True       True       True      False        0        False       True        1         0.0        0.0        0.0       False       True       True       True       True    7.473303702014907    False      False      False      False       True        2       630.0   30.0   RotorSE_FAST_BAR_005a_turb_U8.374815_Seed1764051066.0.bts      3          5         5         5     
    2     1.1      2         True       True      1e-05       5000        1         True       True       True      False        0        False       True        1         0.0        0.0        0.0       False       True       True       True       True    7.473303702014907    False      False      False      False       True        2       630.0   30.0   RotorSE_FAST_BAR_005a_turb_U8.374815_Seed1935526301.0.bts      3          5         5         5     
    3     1.1      2         True       True      1e-05       5000        1         True       True       True      False        0        False       True        1         0.0        0.0        0.0       False       True       True       True       True    7.473303702014907    False      False      False      False       True        2       630.0   30.0    RotorSE_FAST_BAR_005a_turb_U8.374815_Seed333954657.0.bts      3          5         5         5     
    4     1.1      2         True       True      1e-05       5000        1         True       True       True      False        0        False       True        1         0.0        0.0        0.0       False       True       True       True       True    7.473303702014907    False      False      False      False       True        2       630.0   30.0   RotorSE_FAST_BAR_005a_turb_U8.374815_Seed-960771537.0.bts      3          5         5         5     
    5     1.1      2         True       True      1e-05       5000        1         True       True       True      False        0        False       True        1         0.0        0.0        0.0       False       True       True       True       True    7.473303702014907    False      False      False      False       True        2       630.0   30.0    RotorSE_FAST_BAR_005a_turb_U8.374815_Seed714191176.0.bts      3          5         5         5     
